Circuit: * C:\Users\byron.jacquot\Documents\GitHub\Sparkpunk_Sequencer\sims\seq2-invsum.asc

WARNING: Less than two connections to node N022.  This node is used by R:U1:OUT59:OUT.
WARNING: Less than two connections to node U5:DP.  This node is used by A:U5:DDEL.
WARNING: Less than two connections to node N047.  This node is used by V4.
Direct Newton iteration failed to find .op point.  (Use ".option noopiter" to skip.)
Starting Gmin stepping
Gmin = 10
Gmin = 1.07374
Gmin = 0.115292
Gmin = 0.0123794
Gmin = 0.00132923
Gmin = 0.000142725
Gmin = 1.5325e-005
Gmin = 1.6455e-006
Gmin = 1.76685e-007
Gmin = 1.89714e-008
Gmin = 2.03704e-009
Gmin = 2.18725e-010
Gmin = 2.34854e-011
Gmin = 2.52173e-012
Gmin = 2.70769e-013
Gmin = 0
Gmin stepping succeeded in finding the operating point.

Ignoring empty pin current: Ix(u1:vdd)
Ignoring empty pin current: Ix(u5:vdd)
Ignoring empty pin current: Ix(u1:vdd)
Ignoring empty pin current: Ix(u5:vdd)
Heightened Def Con from 0.680342 to 0.680342
Heightened Def Con from 0.959416 to 0.959416
Heightened Def Con from 2.35532 to 2.35532
Heightened Def Con from 4.68027 to 4.68027
Heightened Def Con from 4.95944 to 4.95944
Heightened Def Con from 5.65744 to 5.65744
Heightened Def Con from 6.35535 to 6.35535
Heightened Def Con from 8.95944 to 8.95944
Heightened Def Con from 9.65748 to 9.65748
Heightened Def Con from 9.93666 to 9.93666

Date: Wed Mar 05 18:16:18 2014
Total elapsed time: 7.173 seconds.

tnom = 27
temp = 27
method = modified trap
totiter = 94791
traniter = 94352
tranpoints = 26192
accept = 19746
rejected = 6456
matrix size = 208
fillins = 65
solver = Normal
Thread vector: 55.1/31.1[4] 15.9/6.8[4] 8.9/4.5[4] 1.5/42.6[1]  2592/500
Matrix Compiler1: 10.9 KB object code size  6.3/5.1/[1.7]
Matrix Compiler2: 14.9 KB object code size  4.5/7.0/[2.4]


